<?xml version="1.0" encoding="UTF-8"?>

<!-- generated on 2022-07-05 11:06:37 by Eclipse SUMO netedit Version 1.13.0
<configuration xmlns:xsi="http://www.w3.org/2001/XMLSchema-instance" xsi:noNamespaceSchemaLocation="http://sumo.dlr.de/xsd/netconvertConfiguration.xsd">

    <input>
        <sumo-net-file value="/home/fahmy/TSL/SMARTS/scenarios/intersections/4x3_intersection/map.net.xml"/>
    </input>

    <output>
        <output-file value="/home/fahmy/TSL/SMARTS/scenarios/intersections/4x3_intersection/map.net.xml"/>
    </output>

    <processing>
        <geometry.min-radius.fix.railways value="false"/>
        <geometry.max-grade.fix value="false"/>
        <offset.disable-normalization value="true"/>
        <lefthand value="false"/>
    </processing>

    <junctions>
        <no-turnarounds value="true"/>
        <junctions.corner-detail value="5"/>
        <junctions.limit-turn-speed value="5.5"/>
        <rectangular-lane-cut value="false"/>
    </junctions>

    <pedestrian>
        <walkingareas value="false"/>
    </pedestrian>

    <report>
        <aggregate-warnings value="5"/>
    </report>

</configuration>
-->

<net version="1.9" junctionCornerDetail="5" limitTurnSpeed="5.50" xmlns:xsi="http://www.w3.org/2001/XMLSchema-instance" xsi:noNamespaceSchemaLocation="http://sumo.dlr.de/xsd/net_file.xsd">

    <location netOffset="-630882.85,-4856133.12" convBoundary="19.92,-200.06,420.94,90.96" origBoundary="-79.371708,43.846679,-79.369237,43.847436" projParameter="+proj=utm +zone=17 +ellps=WGS84 +datum=WGS84 +units=m +no_defs"/>

    <type id="highway.bridleway" priority="1" numLanes="1" speed="2.78" allow="pedestrian" oneway="1" width="2.00"/>
    <type id="highway.bus_guideway" priority="1" numLanes="1" speed="27.78" allow="bus" oneway="1"/>
    <type id="highway.cycleway" priority="1" numLanes="1" speed="8.33" allow="bicycle" oneway="0" width="1.00"/>
    <type id="highway.footway" priority="1" numLanes="1" speed="2.78" allow="pedestrian" oneway="1" width="2.00"/>
    <type id="highway.ford" priority="1" numLanes="1" speed="2.78" allow="army" oneway="0"/>
    <type id="highway.living_street" priority="2" numLanes="1" speed="2.78" disallow="tram rail_urban rail rail_electric ship" oneway="0"/>
    <type id="highway.motorway" priority="14" numLanes="2" speed="39.44" allow="private emergency authority army vip passenger hov taxi bus coach delivery truck trailer motorcycle evehicle custom1 custom2" oneway="1"/>
    <type id="highway.motorway_link" priority="9" numLanes="1" speed="22.22" allow="private emergency authority army vip passenger hov taxi bus coach delivery truck trailer motorcycle evehicle custom1 custom2" oneway="1"/>
    <type id="highway.path" priority="1" numLanes="1" speed="2.78" allow="pedestrian bicycle" oneway="1" width="2.00"/>
    <type id="highway.pedestrian" priority="1" numLanes="1" speed="2.78" allow="pedestrian" oneway="1" width="2.00"/>
    <type id="highway.primary" priority="12" numLanes="2" speed="27.78" disallow="tram rail_urban rail rail_electric ship" oneway="0"/>
    <type id="highway.primary_link" priority="7" numLanes="1" speed="22.22" disallow="tram rail_urban rail rail_electric ship" oneway="0"/>
    <type id="highway.raceway" priority="15" numLanes="2" speed="83.33" allow="vip" oneway="0"/>
    <type id="highway.residential" priority="3" numLanes="1" speed="13.89" disallow="tram rail_urban rail rail_electric ship" oneway="0"/>
    <type id="highway.secondary" priority="11" numLanes="2" speed="27.78" disallow="tram rail_urban rail rail_electric ship" oneway="0"/>
    <type id="highway.secondary_link" priority="6" numLanes="1" speed="22.22" disallow="tram rail_urban rail rail_electric ship" oneway="0"/>
    <type id="highway.service" priority="1" numLanes="1" speed="5.56" allow="pedestrian delivery bicycle" oneway="0"/>
    <type id="highway.stairs" priority="1" numLanes="1" speed="1.39" allow="pedestrian" oneway="1" width="2.00"/>
    <type id="highway.step" priority="1" numLanes="1" speed="1.39" allow="pedestrian" oneway="1" width="2.00"/>
    <type id="highway.steps" priority="1" numLanes="1" speed="1.39" allow="pedestrian" oneway="1" width="2.00"/>
    <type id="highway.tertiary" priority="10" numLanes="1" speed="22.22" disallow="tram rail_urban rail rail_electric ship" oneway="0"/>
    <type id="highway.tertiary_link" priority="5" numLanes="1" speed="22.22" disallow="tram rail_urban rail rail_electric ship" oneway="0"/>
    <type id="highway.track" priority="1" numLanes="1" speed="5.56" disallow="tram rail_urban rail rail_electric ship" oneway="0"/>
    <type id="highway.trunk" priority="13" numLanes="2" speed="27.78" disallow="pedestrian bicycle tram rail_urban rail rail_electric ship" oneway="0"/>
    <type id="highway.trunk_link" priority="8" numLanes="1" speed="22.22" disallow="pedestrian bicycle tram rail_urban rail rail_electric ship" oneway="0"/>
    <type id="highway.unclassified" priority="4" numLanes="1" speed="13.89" disallow="tram rail_urban rail rail_electric ship" oneway="0"/>
    <type id="highway.unsurfaced" priority="1" numLanes="1" speed="8.33" disallow="tram rail_urban rail rail_electric ship" oneway="0"/>
    <type id="railway.light_rail" priority="19" numLanes="1" speed="27.78" allow="rail_urban" oneway="1"/>
    <type id="railway.preserved" priority="16" numLanes="1" speed="27.78" allow="rail" oneway="1"/>
    <type id="railway.rail" priority="20" numLanes="1" speed="83.33" allow="rail rail_electric" oneway="1"/>
    <type id="railway.subway" priority="18" numLanes="1" speed="27.78" allow="rail_urban" oneway="1"/>
    <type id="railway.tram" priority="17" numLanes="1" speed="13.89" allow="tram" oneway="1"/>

    <edge id=":J0_0" function="internal">
        <lane id=":J0_0_0" index="0" speed="6.51" length="9.03" shape="215.20,20.40 214.85,17.95 213.80,16.20 212.05,15.15 209.60,14.80"/>
    </edge>
    <edge id=":J0_1" function="internal">
        <lane id=":J0_1_0" index="0" speed="13.00" length="20.80" shape="215.20,20.40 215.20,-0.40"/>
        <lane id=":J0_1_1" index="1" speed="13.00" length="20.80" shape="218.40,20.40 218.40,-0.40"/>
    </edge>
    <edge id=":J0_3" function="internal">
        <lane id=":J0_3_0" index="0" speed="9.26" length="19.35" shape="218.40,20.40 219.15,15.15 221.40,11.40 225.15,9.15 230.40,8.40"/>
    </edge>
    <edge id=":J0_4" function="internal">
        <lane id=":J0_4_0" index="0" speed="6.51" length="9.03" shape="230.40,14.80 227.95,15.15 226.20,16.20 225.15,17.95 224.80,20.40"/>
    </edge>
    <edge id=":J0_5" function="internal">
        <lane id=":J0_5_0" index="0" speed="13.45" length="20.80" shape="230.40,14.80 209.60,14.80"/>
        <lane id=":J0_5_1" index="1" speed="13.45" length="20.80" shape="230.40,11.60 209.60,11.60"/>
    </edge>
    <edge id=":J0_7" function="internal">
        <lane id=":J0_7_0" index="0" speed="9.26" length="5.01" shape="230.40,11.60 225.44,10.89"/>
    </edge>
    <edge id=":J0_16" function="internal">
        <lane id=":J0_16_0" index="0" speed="9.26" length="14.34" shape="225.44,10.89 225.15,10.85 221.40,8.60 219.15,4.85 218.40,-0.40"/>
    </edge>
    <edge id=":J0_8" function="internal">
        <lane id=":J0_8_0" index="0" speed="6.51" length="9.03" shape="224.80,-0.40 225.15,2.05 226.20,3.80 227.95,4.85 230.40,5.20"/>
    </edge>
    <edge id=":J0_9" function="internal">
        <lane id=":J0_9_0" index="0" speed="13.00" length="20.80" shape="224.80,-0.40 224.80,20.40"/>
        <lane id=":J0_9_1" index="1" speed="13.00" length="20.80" shape="221.60,-0.40 221.60,20.40"/>
    </edge>
    <edge id=":J0_11" function="internal">
        <lane id=":J0_11_0" index="0" speed="9.26" length="19.35" shape="221.60,-0.40 220.85,4.85 218.60,8.60 214.85,10.85 209.60,11.60"/>
    </edge>
    <edge id=":J0_12" function="internal">
        <lane id=":J0_12_0" index="0" speed="6.51" length="9.03" shape="209.60,5.20 212.05,4.85 213.80,3.80 214.85,2.05 215.20,-0.40"/>
    </edge>
    <edge id=":J0_13" function="internal">
        <lane id=":J0_13_0" index="0" speed="13.45" length="20.80" shape="209.60,5.20 230.40,5.20"/>
        <lane id=":J0_13_1" index="1" speed="13.45" length="20.80" shape="209.60,8.40 230.40,8.40"/>
    </edge>
    <edge id=":J0_15" function="internal">
        <lane id=":J0_15_0" index="0" speed="9.26" length="5.01" shape="209.60,8.40 214.56,9.11"/>
    </edge>
    <edge id=":J0_17" function="internal">
        <lane id=":J0_17_0" index="0" speed="9.26" length="14.34" shape="214.56,9.11 214.85,9.15 218.60,11.40 220.85,15.15 221.60,20.40"/>
    </edge>
    <edge id=":J10_0" function="internal">
        <lane id=":J10_0_0" index="0" speed="6.51" length="9.03" shape="345.20,-119.60 344.85,-122.05 343.80,-123.80 342.05,-124.85 339.60,-125.20"/>
    </edge>
    <edge id=":J10_1" function="internal">
        <lane id=":J10_1_0" index="0" speed="13.00" length="20.86" shape="345.20,-119.60 345.20,-140.46"/>
        <lane id=":J10_1_1" index="1" speed="13.00" length="20.86" shape="348.40,-119.60 348.40,-140.46"/>
    </edge>
    <edge id=":J10_3" function="internal">
        <lane id=":J10_3_0" index="0" speed="9.31" length="5.00" shape="348.40,-119.60 349.11,-124.54"/>
    </edge>
    <edge id=":J10_16" function="internal">
        <lane id=":J10_16_0" index="0" speed="9.31" length="14.44" shape="349.11,-124.54 349.15,-124.85 351.41,-128.62 355.18,-130.90 360.45,-131.70"/>
    </edge>
    <edge id=":J10_4" function="internal">
        <lane id=":J10_4_0" index="0" speed="6.58" length="9.18" shape="360.51,-125.30 358.01,-124.93 356.23,-123.85 355.16,-122.07 354.80,-119.60"/>
    </edge>
    <edge id=":J10_5" function="internal">
        <lane id=":J10_5_0" index="0" speed="13.00" length="20.89" shape="360.51,-125.30 339.60,-125.20"/>
        <lane id=":J10_5_1" index="1" speed="13.00" length="20.89" shape="360.48,-128.50 339.60,-128.40"/>
    </edge>
    <edge id=":J10_7" function="internal">
        <lane id=":J10_7_0" index="0" speed="9.24" length="19.43" shape="360.48,-128.50 355.19,-129.21 351.42,-131.43 349.15,-135.19 348.40,-140.46"/>
    </edge>
    <edge id=":J10_8" function="internal">
        <lane id=":J10_8_0" index="0" speed="6.49" length="9.03" shape="354.80,-140.46 355.15,-138.01 356.20,-136.27 357.96,-135.23 360.42,-134.90"/>
    </edge>
    <edge id=":J10_9" function="internal">
        <lane id=":J10_9_0" index="0" speed="13.00" length="20.86" shape="354.80,-140.46 354.80,-119.60"/>
        <lane id=":J10_9_1" index="1" speed="13.00" length="20.86" shape="351.60,-140.46 351.60,-119.60"/>
    </edge>
    <edge id=":J10_11" function="internal">
        <lane id=":J10_11_0" index="0" speed="9.27" length="5.04" shape="351.60,-140.46 350.89,-135.47"/>
    </edge>
    <edge id=":J10_17" function="internal">
        <lane id=":J10_17_0" index="0" speed="9.27" length="14.37" shape="350.89,-135.47 350.85,-135.19 348.60,-131.42 344.85,-129.15 339.60,-128.40"/>
    </edge>
    <edge id=":J10_12" function="internal">
        <lane id=":J10_12_0" index="0" speed="6.52" length="9.08" shape="339.60,-134.80 342.05,-135.15 343.80,-136.22 344.85,-137.99 345.20,-140.46"/>
    </edge>
    <edge id=":J10_13" function="internal">
        <lane id=":J10_13_0" index="0" speed="13.00" length="20.83" shape="339.60,-134.80 360.42,-134.90"/>
        <lane id=":J10_13_1" index="1" speed="13.00" length="20.83" shape="339.60,-131.60 360.45,-131.70"/>
    </edge>
    <edge id=":J10_15" function="internal">
        <lane id=":J10_15_0" index="0" speed="9.26" length="19.35" shape="339.60,-131.60 344.85,-130.85 348.60,-128.60 350.85,-124.85 351.60,-119.60"/>
    </edge>
    <edge id=":J4_0" function="internal">
        <lane id=":J4_0_0" index="0" speed="6.51" length="9.03" shape="285.20,-49.60 284.85,-52.05 283.80,-53.80 282.05,-54.85 279.60,-55.20"/>
    </edge>
    <edge id=":J4_1" function="internal">
        <lane id=":J4_1_0" index="0" speed="13.00" length="20.80" shape="285.20,-49.60 285.20,-70.40"/>
        <lane id=":J4_1_1" index="1" speed="13.00" length="20.80" shape="288.40,-49.60 288.40,-70.40"/>
    </edge>
    <edge id=":J4_3" function="internal">
        <lane id=":J4_3_0" index="0" speed="9.26" length="5.01" shape="288.40,-49.60 289.11,-54.56"/>
    </edge>
    <edge id=":J4_16" function="internal">
        <lane id=":J4_16_0" index="0" speed="9.26" length="14.34" shape="289.11,-54.56 289.15,-54.85 291.40,-58.60 295.15,-60.85 300.40,-61.60"/>
    </edge>
    <edge id=":J4_4" function="internal">
        <lane id=":J4_4_0" index="0" speed="6.51" length="9.03" shape="300.40,-55.20 297.95,-54.85 296.20,-53.80 295.15,-52.05 294.80,-49.60"/>
    </edge>
    <edge id=":J4_5" function="internal">
        <lane id=":J4_5_0" index="0" speed="13.00" length="20.80" shape="300.40,-55.20 279.60,-55.20"/>
        <lane id=":J4_5_1" index="1" speed="13.00" length="20.80" shape="300.40,-58.40 279.60,-58.40"/>
    </edge>
    <edge id=":J4_7" function="internal">
        <lane id=":J4_7_0" index="0" speed="9.26" length="19.35" shape="300.40,-58.40 295.15,-59.15 291.40,-61.40 289.15,-65.15 288.40,-70.40"/>
    </edge>
    <edge id=":J4_8" function="internal">
        <lane id=":J4_8_0" index="0" speed="6.51" length="9.03" shape="294.80,-70.40 295.15,-67.95 296.20,-66.20 297.95,-65.15 300.40,-64.80"/>
    </edge>
    <edge id=":J4_9" function="internal">
        <lane id=":J4_9_0" index="0" speed="13.00" length="20.80" shape="294.80,-70.40 294.80,-49.60"/>
        <lane id=":J4_9_1" index="1" speed="13.00" length="20.80" shape="291.60,-70.40 291.60,-49.60"/>
    </edge>
    <edge id=":J4_11" function="internal">
        <lane id=":J4_11_0" index="0" speed="9.26" length="5.01" shape="291.60,-70.40 290.89,-65.44"/>
    </edge>
    <edge id=":J4_17" function="internal">
        <lane id=":J4_17_0" index="0" speed="9.26" length="14.34" shape="290.89,-65.44 290.85,-65.15 288.60,-61.40 284.85,-59.15 279.60,-58.40"/>
    </edge>
    <edge id=":J4_12" function="internal">
        <lane id=":J4_12_0" index="0" speed="6.51" length="9.03" shape="279.60,-64.80 282.05,-65.15 283.80,-66.20 284.85,-67.95 285.20,-70.40"/>
    </edge>
    <edge id=":J4_13" function="internal">
        <lane id=":J4_13_0" index="0" speed="13.00" length="20.80" shape="279.60,-64.80 300.40,-64.80"/>
        <lane id=":J4_13_1" index="1" speed="13.00" length="20.80" shape="279.60,-61.60 300.40,-61.60"/>
    </edge>
    <edge id=":J4_15" function="internal">
        <lane id=":J4_15_0" index="0" speed="9.26" length="19.35" shape="279.60,-61.60 284.85,-60.85 288.60,-58.60 290.85,-54.85 291.60,-49.60"/>
    </edge>
    <edge id=":J5_0" function="internal">
        <lane id=":J5_0_0" index="0" speed="6.51" length="9.03" shape="285.20,20.40 284.85,17.95 283.80,16.20 282.05,15.15 279.60,14.80"/>
    </edge>
    <edge id=":J5_1" function="internal">
        <lane id=":J5_1_0" index="0" speed="13.00" length="20.80" shape="285.20,20.40 285.20,-0.40"/>
        <lane id=":J5_1_1" index="1" speed="13.00" length="20.80" shape="288.40,20.40 288.40,-0.40"/>
    </edge>
    <edge id=":J5_3" function="internal">
        <lane id=":J5_3_0" index="0" speed="9.26" length="5.01" shape="288.40,20.40 289.11,15.44"/>
    </edge>
    <edge id=":J5_16" function="internal">
        <lane id=":J5_16_0" index="0" speed="9.26" length="14.34" shape="289.11,15.44 289.15,15.15 291.40,11.40 295.15,9.15 300.40,8.40"/>
    </edge>
    <edge id=":J5_4" function="internal">
        <lane id=":J5_4_0" index="0" speed="6.51" length="9.03" shape="300.40,14.80 297.95,15.15 296.20,16.20 295.15,17.95 294.80,20.40"/>
    </edge>
    <edge id=":J5_5" function="internal">
        <lane id=":J5_5_0" index="0" speed="13.00" length="20.80" shape="300.40,14.80 279.60,14.80"/>
        <lane id=":J5_5_1" index="1" speed="13.00" length="20.80" shape="300.40,11.60 279.60,11.60"/>
    </edge>
    <edge id=":J5_7" function="internal">
        <lane id=":J5_7_0" index="0" speed="9.26" length="19.35" shape="300.40,11.60 295.15,10.85 291.40,8.60 289.15,4.85 288.40,-0.40"/>
    </edge>
    <edge id=":J5_8" function="internal">
        <lane id=":J5_8_0" index="0" speed="6.51" length="9.03" shape="294.80,-0.40 295.15,2.05 296.20,3.80 297.95,4.85 300.40,5.20"/>
    </edge>
    <edge id=":J5_9" function="internal">
        <lane id=":J5_9_0" index="0" speed="13.00" length="20.80" shape="294.80,-0.40 294.80,20.40"/>
        <lane id=":J5_9_1" index="1" speed="13.00" length="20.80" shape="291.60,-0.40 291.60,20.40"/>
    </edge>
    <edge id=":J5_11" function="internal">
        <lane id=":J5_11_0" index="0" speed="9.26" length="5.01" shape="291.60,-0.40 290.89,4.56"/>
    </edge>
    <edge id=":J5_17" function="internal">
        <lane id=":J5_17_0" index="0" speed="9.26" length="14.34" shape="290.89,4.56 290.85,4.85 288.60,8.60 284.85,10.85 279.60,11.60"/>
    </edge>
    <edge id=":J5_12" function="internal">
        <lane id=":J5_12_0" index="0" speed="6.51" length="9.03" shape="279.60,5.20 282.05,4.85 283.80,3.80 284.85,2.05 285.20,-0.40"/>
    </edge>
    <edge id=":J5_13" function="internal">
        <lane id=":J5_13_0" index="0" speed="13.00" length="20.80" shape="279.60,5.20 300.40,5.20"/>
        <lane id=":J5_13_1" index="1" speed="13.00" length="20.80" shape="279.60,8.40 300.40,8.40"/>
    </edge>
    <edge id=":J5_15" function="internal">
        <lane id=":J5_15_0" index="0" speed="9.26" length="19.35" shape="279.60,8.40 284.85,9.15 288.60,11.40 290.85,15.15 291.60,20.40"/>
    </edge>
    <edge id=":J6_0" function="internal">
        <lane id=":J6_0_0" index="0" speed="6.51" length="9.03" shape="345.20,20.40 344.85,17.95 343.80,16.20 342.05,15.15 339.60,14.80"/>
    </edge>
    <edge id=":J6_1" function="internal">
        <lane id=":J6_1_0" index="0" speed="13.00" length="20.80" shape="345.20,20.40 345.20,-0.40"/>
        <lane id=":J6_1_1" index="1" speed="13.00" length="20.80" shape="348.40,20.40 348.40,-0.40"/>
    </edge>
    <edge id=":J6_3" function="internal">
        <lane id=":J6_3_0" index="0" speed="9.26" length="5.01" shape="348.40,20.40 349.11,15.44"/>
    </edge>
    <edge id=":J6_16" function="internal">
        <lane id=":J6_16_0" index="0" speed="9.26" length="14.34" shape="349.11,15.44 349.15,15.15 351.40,11.40 355.15,9.15 360.40,8.40"/>
    </edge>
    <edge id=":J6_4" function="internal">
        <lane id=":J6_4_0" index="0" speed="6.51" length="9.03" shape="360.40,14.80 357.95,15.15 356.20,16.20 355.15,17.95 354.80,20.40"/>
    </edge>
    <edge id=":J6_5" function="internal">
        <lane id=":J6_5_0" index="0" speed="13.00" length="20.80" shape="360.40,14.80 339.60,14.80"/>
        <lane id=":J6_5_1" index="1" speed="13.00" length="20.80" shape="360.40,11.60 339.60,11.60"/>
    </edge>
    <edge id=":J6_7" function="internal">
        <lane id=":J6_7_0" index="0" speed="9.26" length="19.35" shape="360.40,11.60 355.15,10.85 351.40,8.60 349.15,4.85 348.40,-0.40"/>
    </edge>
    <edge id=":J6_8" function="internal">
        <lane id=":J6_8_0" index="0" speed="6.51" length="9.03" shape="354.80,-0.40 355.15,2.05 356.20,3.80 357.95,4.85 360.40,5.20"/>
    </edge>
    <edge id=":J6_9" function="internal">
        <lane id=":J6_9_0" index="0" speed="13.00" length="20.80" shape="354.80,-0.40 354.80,20.40"/>
        <lane id=":J6_9_1" index="1" speed="13.00" length="20.80" shape="351.60,-0.40 351.60,20.40"/>
    </edge>
    <edge id=":J6_11" function="internal">
        <lane id=":J6_11_0" index="0" speed="9.26" length="5.01" shape="351.60,-0.40 350.89,4.56"/>
    </edge>
    <edge id=":J6_17" function="internal">
        <lane id=":J6_17_0" index="0" speed="9.26" length="14.34" shape="350.89,4.56 350.85,4.85 348.60,8.60 344.85,10.85 339.60,11.60"/>
    </edge>
    <edge id=":J6_12" function="internal">
        <lane id=":J6_12_0" index="0" speed="6.51" length="9.03" shape="339.60,5.20 342.05,4.85 343.80,3.80 344.85,2.05 345.20,-0.40"/>
    </edge>
    <edge id=":J6_13" function="internal">
        <lane id=":J6_13_0" index="0" speed="13.00" length="20.80" shape="339.60,5.20 360.40,5.20"/>
        <lane id=":J6_13_1" index="1" speed="13.00" length="20.80" shape="339.60,8.40 360.40,8.40"/>
    </edge>
    <edge id=":J6_15" function="internal">
        <lane id=":J6_15_0" index="0" speed="9.26" length="19.35" shape="339.60,8.40 344.85,9.15 348.60,11.40 350.85,15.15 351.60,20.40"/>
    </edge>
    <edge id=":J7_0" function="internal">
        <lane id=":J7_0_0" index="0" speed="6.51" length="9.03" shape="345.20,-49.60 344.85,-52.05 343.80,-53.80 342.05,-54.85 339.60,-55.20"/>
    </edge>
    <edge id=":J7_1" function="internal">
        <lane id=":J7_1_0" index="0" speed="13.00" length="20.80" shape="345.20,-49.60 345.20,-70.40"/>
        <lane id=":J7_1_1" index="1" speed="13.00" length="20.80" shape="348.40,-49.60 348.40,-70.40"/>
    </edge>
    <edge id=":J7_3" function="internal">
        <lane id=":J7_3_0" index="0" speed="9.26" length="5.01" shape="348.40,-49.60 349.11,-54.56"/>
    </edge>
    <edge id=":J7_16" function="internal">
        <lane id=":J7_16_0" index="0" speed="9.26" length="14.34" shape="349.11,-54.56 349.15,-54.85 351.40,-58.60 355.15,-60.85 360.40,-61.60"/>
    </edge>
    <edge id=":J7_4" function="internal">
        <lane id=":J7_4_0" index="0" speed="6.51" length="9.03" shape="360.40,-55.20 357.95,-54.85 356.20,-53.80 355.15,-52.05 354.80,-49.60"/>
    </edge>
    <edge id=":J7_5" function="internal">
        <lane id=":J7_5_0" index="0" speed="13.00" length="20.80" shape="360.40,-55.20 339.60,-55.20"/>
        <lane id=":J7_5_1" index="1" speed="13.00" length="20.80" shape="360.40,-58.40 339.60,-58.40"/>
    </edge>
    <edge id=":J7_7" function="internal">
        <lane id=":J7_7_0" index="0" speed="9.26" length="19.35" shape="360.40,-58.40 355.15,-59.15 351.40,-61.40 349.15,-65.15 348.40,-70.40"/>
    </edge>
    <edge id=":J7_8" function="internal">
        <lane id=":J7_8_0" index="0" speed="6.51" length="9.03" shape="354.80,-70.40 355.15,-67.95 356.20,-66.20 357.95,-65.15 360.40,-64.80"/>
    </edge>
    <edge id=":J7_9" function="internal">
        <lane id=":J7_9_0" index="0" speed="13.00" length="20.80" shape="354.80,-70.40 354.80,-49.60"/>
        <lane id=":J7_9_1" index="1" speed="13.00" length="20.80" shape="351.60,-70.40 351.60,-49.60"/>
    </edge>
    <edge id=":J7_11" function="internal">
        <lane id=":J7_11_0" index="0" speed="9.26" length="5.01" shape="351.60,-70.40 350.89,-65.44"/>
    </edge>
    <edge id=":J7_17" function="internal">
        <lane id=":J7_17_0" index="0" speed="9.26" length="14.34" shape="350.89,-65.44 350.85,-65.15 348.60,-61.40 344.85,-59.15 339.60,-58.40"/>
    </edge>
    <edge id=":J7_12" function="internal">
        <lane id=":J7_12_0" index="0" speed="6.51" length="9.03" shape="339.60,-64.80 342.05,-65.15 343.80,-66.20 344.85,-67.95 345.20,-70.40"/>
    </edge>
    <edge id=":J7_13" function="internal">
        <lane id=":J7_13_0" index="0" speed="13.00" length="20.80" shape="339.60,-64.80 360.40,-64.80"/>
        <lane id=":J7_13_1" index="1" speed="13.00" length="20.80" shape="339.60,-61.60 360.40,-61.60"/>
    </edge>
    <edge id=":J7_15" function="internal">
        <lane id=":J7_15_0" index="0" speed="9.26" length="19.35" shape="339.60,-61.60 344.85,-60.85 348.60,-58.60 350.85,-54.85 351.60,-49.60"/>
    </edge>
    <edge id=":J8_0" function="internal">
        <lane id=":J8_0_0" index="0" speed="6.51" length="9.03" shape="215.20,-119.60 214.85,-122.05 213.80,-123.80 212.05,-124.85 209.60,-125.20"/>
    </edge>
    <edge id=":J8_1" function="internal">
        <lane id=":J8_1_0" index="0" speed="13.00" length="20.80" shape="215.20,-119.60 215.20,-140.40"/>
        <lane id=":J8_1_1" index="1" speed="13.00" length="20.80" shape="218.40,-119.60 218.40,-140.40"/>
    </edge>
    <edge id=":J8_3" function="internal">
        <lane id=":J8_3_0" index="0" speed="9.26" length="19.35" shape="218.40,-119.60 219.15,-124.85 221.40,-128.60 225.15,-130.85 230.40,-131.60"/>
    </edge>
    <edge id=":J8_4" function="internal">
        <lane id=":J8_4_0" index="0" speed="6.51" length="9.03" shape="230.40,-125.20 227.95,-124.85 226.20,-123.80 225.15,-122.05 224.80,-119.60"/>
    </edge>
    <edge id=":J8_5" function="internal">
        <lane id=":J8_5_0" index="0" speed="13.45" length="20.80" shape="230.40,-125.20 209.60,-125.20"/>
        <lane id=":J8_5_1" index="1" speed="13.45" length="20.80" shape="230.40,-128.40 209.60,-128.40"/>
    </edge>
    <edge id=":J8_7" function="internal">
        <lane id=":J8_7_0" index="0" speed="9.26" length="5.01" shape="230.40,-128.40 225.44,-129.11"/>
    </edge>
    <edge id=":J8_16" function="internal">
        <lane id=":J8_16_0" index="0" speed="9.26" length="14.34" shape="225.44,-129.11 225.15,-129.15 221.40,-131.40 219.15,-135.15 218.40,-140.40"/>
    </edge>
    <edge id=":J8_8" function="internal">
        <lane id=":J8_8_0" index="0" speed="6.51" length="9.03" shape="224.80,-140.40 225.15,-137.95 226.20,-136.20 227.95,-135.15 230.40,-134.80"/>
    </edge>
    <edge id=":J8_9" function="internal">
        <lane id=":J8_9_0" index="0" speed="13.00" length="20.80" shape="224.80,-140.40 224.80,-119.60"/>
        <lane id=":J8_9_1" index="1" speed="13.00" length="20.80" shape="221.60,-140.40 221.60,-119.60"/>
    </edge>
    <edge id=":J8_11" function="internal">
        <lane id=":J8_11_0" index="0" speed="9.26" length="19.35" shape="221.60,-140.40 220.85,-135.15 218.60,-131.40 214.85,-129.15 209.60,-128.40"/>
    </edge>
    <edge id=":J8_12" function="internal">
        <lane id=":J8_12_0" index="0" speed="6.51" length="9.03" shape="209.60,-134.80 212.05,-135.15 213.80,-136.20 214.85,-137.95 215.20,-140.40"/>
    </edge>
    <edge id=":J8_13" function="internal">
        <lane id=":J8_13_0" index="0" speed="13.45" length="20.80" shape="209.60,-134.80 230.40,-134.80"/>
        <lane id=":J8_13_1" index="1" speed="13.45" length="20.80" shape="209.60,-131.60 230.40,-131.60"/>
    </edge>
    <edge id=":J8_15" function="internal">
        <lane id=":J8_15_0" index="0" speed="9.26" length="5.01" shape="209.60,-131.60 214.56,-130.89"/>
    </edge>
    <edge id=":J8_17" function="internal">
        <lane id=":J8_17_0" index="0" speed="9.26" length="14.34" shape="214.56,-130.89 214.85,-130.85 218.60,-128.60 220.85,-124.85 221.60,-119.60"/>
    </edge>
    <edge id=":J9_0" function="internal">
        <lane id=":J9_0_0" index="0" speed="6.51" length="9.03" shape="285.20,-119.60 284.85,-122.05 283.80,-123.80 282.05,-124.85 279.60,-125.20"/>
    </edge>
    <edge id=":J9_1" function="internal">
        <lane id=":J9_1_0" index="0" speed="13.00" length="20.80" shape="285.20,-119.60 285.20,-140.40"/>
        <lane id=":J9_1_1" index="1" speed="13.00" length="20.80" shape="288.40,-119.60 288.40,-140.40"/>
    </edge>
    <edge id=":J9_3" function="internal">
        <lane id=":J9_3_0" index="0" speed="9.26" length="5.01" shape="288.40,-119.60 289.11,-124.56"/>
    </edge>
    <edge id=":J9_16" function="internal">
        <lane id=":J9_16_0" index="0" speed="9.26" length="14.34" shape="289.11,-124.56 289.15,-124.85 291.40,-128.60 295.15,-130.85 300.40,-131.60"/>
    </edge>
    <edge id=":J9_4" function="internal">
        <lane id=":J9_4_0" index="0" speed="6.51" length="9.03" shape="300.40,-125.20 297.95,-124.85 296.20,-123.80 295.15,-122.05 294.80,-119.60"/>
    </edge>
    <edge id=":J9_5" function="internal">
        <lane id=":J9_5_0" index="0" speed="13.00" length="20.80" shape="300.40,-125.20 279.60,-125.20"/>
        <lane id=":J9_5_1" index="1" speed="13.00" length="20.80" shape="300.40,-128.40 279.60,-128.40"/>
    </edge>
    <edge id=":J9_7" function="internal">
        <lane id=":J9_7_0" index="0" speed="9.26" length="19.35" shape="300.40,-128.40 295.15,-129.15 291.40,-131.40 289.15,-135.15 288.40,-140.40"/>
    </edge>
    <edge id=":J9_8" function="internal">
        <lane id=":J9_8_0" index="0" speed="6.51" length="9.03" shape="294.80,-140.40 295.15,-137.95 296.20,-136.20 297.95,-135.15 300.40,-134.80"/>
    </edge>
    <edge id=":J9_9" function="internal">
        <lane id=":J9_9_0" index="0" speed="13.00" length="20.80" shape="294.80,-140.40 294.80,-119.60"/>
        <lane id=":J9_9_1" index="1" speed="13.00" length="20.80" shape="291.60,-140.40 291.60,-119.60"/>
    </edge>
    <edge id=":J9_11" function="internal">
        <lane id=":J9_11_0" index="0" speed="9.26" length="5.01" shape="291.60,-140.40 290.89,-135.44"/>
    </edge>
    <edge id=":J9_17" function="internal">
        <lane id=":J9_17_0" index="0" speed="9.26" length="14.34" shape="290.89,-135.44 290.85,-135.15 288.60,-131.40 284.85,-129.15 279.60,-128.40"/>
    </edge>
    <edge id=":J9_12" function="internal">
        <lane id=":J9_12_0" index="0" speed="6.51" length="9.03" shape="279.60,-134.80 282.05,-135.15 283.80,-136.20 284.85,-137.95 285.20,-140.40"/>
    </edge>
    <edge id=":J9_13" function="internal">
        <lane id=":J9_13_0" index="0" speed="13.00" length="20.80" shape="279.60,-134.80 300.40,-134.80"/>
        <lane id=":J9_13_1" index="1" speed="13.00" length="20.80" shape="279.60,-131.60 300.40,-131.60"/>
    </edge>
    <edge id=":J9_15" function="internal">
        <lane id=":J9_15_0" index="0" speed="9.26" length="19.35" shape="279.60,-131.60 284.85,-130.85 288.60,-128.60 290.85,-124.85 291.60,-119.60"/>
    </edge>
    <edge id=":junction-east_0" function="internal">
        <lane id=":junction-east_0_0" index="0" speed="6.51" length="9.03" shape="215.20,-49.60 214.85,-52.05 213.80,-53.80 212.05,-54.85 209.60,-55.20"/>
    </edge>
    <edge id=":junction-east_1" function="internal">
        <lane id=":junction-east_1_0" index="0" speed="13.00" length="20.80" shape="215.20,-49.60 215.20,-70.40"/>
        <lane id=":junction-east_1_1" index="1" speed="13.00" length="20.80" shape="218.40,-49.60 218.40,-70.40"/>
    </edge>
    <edge id=":junction-east_3" function="internal">